REMARK  Name = *****
REMARK  6 active torsions:
REMARK  status: ('A' for Active; 'I' for Inactive)
REMARK    1  A    between atoms: C_2  and  C_4
REMARK    2  A    between atoms: C_4  and  C_5
REMARK    3  A    between atoms: C_4  and  O_9
REMARK    4  A    between atoms: O_9  and  C_10
REMARK    5  A    between atoms: C_10  and  C_11
REMARK    6  A    between atoms: C_11  and  C_12
REMARK                            x       y       z     vdW  Elec       q    Type
REMARK                         _______ _______ _______ _____ _____    ______ ____
ROOT
ATOM      1  O   UNL A   1       2.811  -0.636   2.273  0.00  0.00    -0.193 OA
ENDROOT
BRANCH   1   2
ATOM      2  C   UNL A   1       1.406  -0.476   2.366  0.00  0.00    +0.419 C 
ATOM      3  F   UNL A   1       0.849  -0.845   1.188  0.00  0.00    -0.176 F 
ATOM      4  F   UNL A   1       1.052  -1.481   3.235  0.00  0.00    -0.176 F 
BRANCH   2   5
ATOM      5  C   UNL A   1       0.789   0.816   2.891  0.00  0.00    +0.430 C 
ATOM      6  F   UNL A   1       1.296   1.123   4.120  0.00  0.00    -0.183 F 
ATOM      7  F   UNL A   1       1.020   1.879   2.074  0.00  0.00    -0.183 F 
BRANCH   5   8
ATOM      8  C   UNL A   1      -0.717   0.613   3.009  0.00  0.00    +0.445 C 
ATOM      9  F   UNL A   1      -1.120  -0.674   3.115  0.00  0.00    -0.163 F 
ATOM     10  F   UNL A   1      -1.222   1.253   4.100  0.00  0.00    -0.163 F 
ATOM     11  F   UNL A   1      -1.386   1.127   1.942  0.00  0.00    -0.163 F 
ENDBRANCH   5   8
ENDBRANCH   2   5
ENDBRANCH   1   2
BRANCH   1  12
ATOM     12  C   UNL A   1       3.523  -0.008   1.188  0.00  0.00    +0.439 C 
ATOM     13  F   UNL A   1       4.757  -0.626   1.223  0.00  0.00    -0.187 F 
BRANCH  12  14
ATOM     14  C   UNL A   1       2.961  -0.165  -0.217  0.00  0.00    +0.443 C 
ATOM     15  F   UNL A   1       1.836   0.561  -0.433  0.00  0.00    -0.164 F 
ATOM     16  F   UNL A   1       3.834   0.106  -1.216  0.00  0.00    -0.164 F 
ATOM     17  F   UNL A   1       2.601  -1.470  -0.419  0.00  0.00    -0.164 F 
ENDBRANCH  12  14
BRANCH  12  19
ATOM     18  O   UNL A   1       3.596   1.878   2.623  0.00  0.00    -0.267 OA
ATOM     19  C   UNL A   1       3.764   1.494   1.423  0.00  0.00    +0.435 C 
ATOM     20  O   UNL A   1       4.091   2.200   0.431  0.00  0.00    -0.267 OA
ENDBRANCH  12  19
ENDBRANCH   1  12
TORSDOF 6
