REMARK  Name = *****
REMARK  17 active torsions:
REMARK  status: ('A' for Active; 'I' for Inactive)
REMARK    1  A    between atoms: C_2  and  C_4
REMARK    2  A    between atoms: C_4  and  C_5
REMARK    3  A    between atoms: C_5  and  C_6
REMARK    4  A    between atoms: C_6  and  C_7
REMARK    5  A    between atoms: C_7  and  C_8
REMARK    6  A    between atoms: C_8  and  C_9
REMARK    7  A    between atoms: C_9  and  C_10
REMARK    8  A    between atoms: C_10  and  C_11
REMARK    9  A    between atoms: C_11  and  C_12
REMARK   10  A    between atoms: C_12  and  C_13
REMARK   11  A    between atoms: C_13  and  C_14
REMARK   12  A    between atoms: C_14  and  C_15
REMARK   13  A    between atoms: C_15  and  C_16
REMARK   14  A    between atoms: C_16  and  C_17
REMARK   15  A    between atoms: C_17  and  C_18
REMARK   16  A    between atoms: C_18  and  C_19
REMARK   17  A    between atoms: C_19  and  C_20
REMARK                            x       y       z     vdW  Elec       q    Type
REMARK                         _______ _______ _______ _____ _____    ______ ____
ROOT
ATOM      1  C   UNL A   1       0.135   7.047  -3.217  0.00  0.00    +0.401 C 
ATOM      2  F   UNL A   1      -0.180   8.115  -2.427  0.00  0.00    -0.201 F 
ATOM      3  F   UNL A   1       1.487   6.937  -3.076  0.00  0.00    -0.201 F 
ENDROOT
BRANCH   1   4
ATOM      4  C   UNL A   1      -0.540   5.795  -2.657  0.00  0.00    +0.401 C 
ATOM      5  F   UNL A   1      -1.892   5.990  -2.679  0.00  0.00    -0.201 F 
ATOM      6  F   UNL A   1      -0.255   5.687  -1.330  0.00  0.00    -0.201 F 
BRANCH   4   7
ATOM      7  C   UNL A   1      -0.216   4.473  -3.355  0.00  0.00    +0.401 C 
ATOM      8  F   UNL A   1      -0.666   4.559  -4.645  0.00  0.00    -0.201 F 
ATOM      9  F   UNL A   1      -0.980   3.481  -2.819  0.00  0.00    -0.201 F 
BRANCH   7  10
ATOM     10  C   UNL A   1       1.252   4.047  -3.368  0.00  0.00    +0.401 C 
ATOM     11  F   UNL A   1       1.956   4.991  -4.066  0.00  0.00    -0.201 F 
ATOM     12  F   UNL A   1       1.390   2.926  -4.130  0.00  0.00    -0.201 F 
BRANCH  10  13
ATOM     13  C   UNL A   1       1.917   3.841  -2.007  0.00  0.00    +0.401 C 
ATOM     14  F   UNL A   1       1.896   5.047  -1.355  0.00  0.00    -0.201 F 
ATOM     15  F   UNL A   1       3.245   3.604  -2.192  0.00  0.00    -0.201 F 
BRANCH  13  16
ATOM     16  C   UNL A   1       1.311   2.775  -1.092  0.00  0.00    +0.401 C 
ATOM     17  F   UNL A   1       0.017   3.150  -0.834  0.00  0.00    -0.201 F 
ATOM     18  F   UNL A   1       1.920   2.860   0.117  0.00  0.00    -0.201 F 
BRANCH  16  19
ATOM     19  C   UNL A   1       1.310   1.343  -1.627  0.00  0.00    +0.403 C 
ATOM     20  F   UNL A   1       0.557   1.351  -2.783  0.00  0.00    -0.200 F 
ATOM     21  F   UNL A   1       0.584   0.536  -0.809  0.00  0.00    -0.200 F 
BRANCH  19  22
ATOM     22  C   UNL A   1       2.664   0.724  -1.961  0.00  0.00    +0.412 C 
ATOM     23  F   UNL A   1       3.217   1.476  -2.975  0.00  0.00    -0.198 F 
ATOM     24  F   UNL A   1       2.463  -0.494  -2.549  0.00  0.00    -0.198 F 
BRANCH  22  25
ATOM     25  C   UNL A   1       3.672   0.628  -0.844  0.00  0.00    +0.442 C 
ATOM     26  F   UNL A   1       3.981   1.866  -0.362  0.00  0.00    -0.184 F 
ATOM     27  F   UNL A   1       4.853   0.109  -1.297  0.00  0.00    -0.184 F 
BRANCH  25  29
ATOM     28  O   UNL A   1       2.361   0.348   1.108  0.00  0.00    -0.266 OA
ATOM     29  C   UNL A   1       3.073  -0.258   0.253  0.00  0.00    +0.437 C 
ATOM     30  O   UNL A   1       3.298  -1.499   0.174  0.00  0.00    -0.266 OA
ENDBRANCH  25  29
ENDBRANCH  22  25
ENDBRANCH  19  22
ENDBRANCH  16  19
ENDBRANCH  13  16
ENDBRANCH  10  13
ENDBRANCH   7  10
ENDBRANCH   4   7
ENDBRANCH   1   4
BRANCH   1  31
ATOM     31  C   UNL A   1      -0.190   7.409  -4.663  0.00  0.00    +0.401 C 
ATOM     32  F   UNL A   1       0.554   8.489  -5.031  0.00  0.00    -0.201 F 
ATOM     33  F   UNL A   1       0.256   6.415  -5.491  0.00  0.00    -0.201 F 
BRANCH  31  34
ATOM     34  C   UNL A   1      -1.651   7.706  -4.982  0.00  0.00    +0.401 C 
ATOM     35  F   UNL A   1      -1.780   7.959  -6.316  0.00  0.00    -0.201 F 
ATOM     36  F   UNL A   1      -2.383   6.572  -4.797  0.00  0.00    -0.201 F 
BRANCH  34  37
ATOM     37  C   UNL A   1      -2.306   8.850  -4.214  0.00  0.00    +0.401 C 
ATOM     38  F   UNL A   1      -3.630   8.890  -4.549  0.00  0.00    -0.201 F 
ATOM     39  F   UNL A   1      -2.318   8.549  -2.884  0.00  0.00    -0.201 F 
BRANCH  37  40
ATOM     40  C   UNL A   1      -1.708  10.241  -4.410  0.00  0.00    +0.401 C 
ATOM     41  F   UNL A   1      -2.305  11.112  -3.542  0.00  0.00    -0.201 F 
ATOM     42  F   UNL A   1      -0.405  10.231  -4.006  0.00  0.00    -0.201 F 
BRANCH  40  43
ATOM     43  C   UNL A   1      -1.797  10.833  -5.814  0.00  0.00    +0.403 C 
ATOM     44  F   UNL A   1      -1.210  12.070  -5.799  0.00  0.00    -0.200 F 
ATOM     45  F   UNL A   1      -1.008  10.098  -6.655  0.00  0.00    -0.200 F 
BRANCH  43  46
ATOM     46  C   UNL A   1      -3.187  10.970  -6.431  0.00  0.00    +0.408 C 
ATOM     47  F   UNL A   1      -3.062  11.560  -7.658  0.00  0.00    -0.199 F 
ATOM     48  F   UNL A   1      -3.685   9.730  -6.691  0.00  0.00    -0.199 F 
BRANCH  46  49
ATOM     49  C   UNL A   1      -4.153  11.758  -5.581  0.00  0.00    +0.420 C 
ATOM     50  F   UNL A   1      -4.396  11.097  -4.418  0.00  0.00    -0.190 F 
ATOM     51  F   UNL A   1      -3.616  12.956  -5.222  0.00  0.00    -0.190 F 
BRANCH  49  52
ATOM     52  C   UNL A   1      -5.466  11.964  -6.317  0.00  0.00    +0.440 C 
ATOM     53  F   UNL A   1      -5.947  10.820  -6.852  0.00  0.00    -0.165 F 
ATOM     54  F   UNL A   1      -6.421  12.434  -5.474  0.00  0.00    -0.165 F 
ATOM     55  F   UNL A   1      -5.352  12.864  -7.320  0.00  0.00    -0.165 F 
ENDBRANCH  49  52
ENDBRANCH  46  49
ENDBRANCH  43  46
ENDBRANCH  40  43
ENDBRANCH  37  40
ENDBRANCH  34  37
ENDBRANCH  31  34
ENDBRANCH   1  31
TORSDOF 17
