REMARK  Name = *****
REMARK  14 active torsions:
REMARK  status: ('A' for Active; 'I' for Inactive)
REMARK    1  A    between atoms: O_1  and  C_2
REMARK    2  A    between atoms: C_2  and  C_3
REMARK    3  A    between atoms: C_3  and  N_4
REMARK    4  A    between atoms: N_4  and  S_5
REMARK    5  A    between atoms: N_4  and  C_33
REMARK    6  A    between atoms: S_5  and  C_8
REMARK    7  A    between atoms: C_8  and  C_9
REMARK    8  A    between atoms: C_9  and  C_10
REMARK    9  A    between atoms: C_10  and  C_11
REMARK   10  A    between atoms: C_11  and  C_12
REMARK   11  A    between atoms: C_12  and  C_13
REMARK   12  A    between atoms: C_13  and  C_14
REMARK   13  A    between atoms: C_14  and  C_15
REMARK   14  A    between atoms: C_33  and  C_34
REMARK                            x       y       z     vdW  Elec       q    Type
REMARK                         _______ _______ _______ _____ _____    ______ ____
ROOT
ATOM      1  C   UNL A   1       4.598  -1.634  -1.137  0.00  0.00    +0.449 C 
ATOM      2  F   UNL A   1       3.298  -2.048  -1.241  0.00  0.00    -0.169 F 
ATOM      3  F   UNL A   1       5.332  -2.591  -1.781  0.00  0.00    -0.169 F 
ENDROOT
BRANCH   1   4
ATOM      4  S   UNL A   1       4.829   0.010  -1.875  0.00  0.00    +0.080 S 
ATOM      5  O   UNL A   1       6.239   0.359  -1.901  0.00  0.00    -0.218 OA
ATOM      6  O   UNL A   1       3.898   0.918  -1.227  0.00  0.00    -0.218 OA
BRANCH   4   7
ATOM      7  N   UNL A   1       4.255  -0.179  -3.447  0.00  0.00    -0.117 NA
BRANCH   7   8
ATOM      8  C   UNL A   1       4.829  -1.120  -4.198  0.00  0.00    +0.194 C 
BRANCH   8  11
ATOM     11  C   UNL A   1       5.380  -2.295  -4.995  0.00  0.00    +0.229 C 
BRANCH  11  14
ATOM     14  O   UNL A   1       5.842  -3.376  -5.685  0.00  0.00    -0.277 OA
ENDBRANCH  11  14
ENDBRANCH   8  11
ENDBRANCH   7   8
BRANCH   7  16
ATOM     16  C   UNL A   1       4.111   0.972  -4.104  0.00  0.00    +0.119 C 
BRANCH  16  19
ATOM     19  C   UNL A   1       3.842   2.314  -4.808  0.00  0.00    +0.055 C 
ENDBRANCH  16  19
ENDBRANCH   7  16
ENDBRANCH   4   7
ENDBRANCH   1   4
BRANCH   1  23
ATOM     23  C   UNL A   1       5.010  -1.648   0.323  0.00  0.00    +0.419 C 
ATOM     24  F   UNL A   1       4.865  -2.932   0.795  0.00  0.00    -0.193 F 
ATOM     25  F   UNL A   1       6.354  -1.409   0.425  0.00  0.00    -0.193 F 
BRANCH  23  26
ATOM     26  C   UNL A   1       4.295  -0.741   1.317  0.00  0.00    +0.406 C 
ATOM     27  F   UNL A   1       4.834  -0.955   2.561  0.00  0.00    -0.199 F 
ATOM     28  F   UNL A   1       4.616   0.556   1.058  0.00  0.00    -0.199 F 
BRANCH  26  29
ATOM     29  C   UNL A   1       2.782  -0.885   1.446  0.00  0.00    +0.402 C 
ATOM     30  F   UNL A   1       2.313   0.095   2.277  0.00  0.00    -0.200 F 
ATOM     31  F   UNL A   1       2.204  -0.608   0.242  0.00  0.00    -0.200 F 
BRANCH  29  32
ATOM     32  C   UNL A   1       2.249  -2.226   1.945  0.00  0.00    +0.403 C 
ATOM     33  F   UNL A   1       0.879  -2.153   1.981  0.00  0.00    -0.200 F 
ATOM     34  F   UNL A   1       2.515  -3.170   0.993  0.00  0.00    -0.200 F 
BRANCH  32  35
ATOM     35  C   UNL A   1       2.729  -2.754   3.293  0.00  0.00    +0.408 C 
ATOM     36  F   UNL A   1       2.140  -3.973   3.502  0.00  0.00    -0.199 F 
ATOM     37  F   UNL A   1       4.063  -3.009   3.237  0.00  0.00    -0.199 F 
BRANCH  35  38
ATOM     38  C   UNL A   1       2.417  -1.863   4.471  0.00  0.00    +0.420 C 
ATOM     39  F   UNL A   1       3.024  -0.654   4.319  0.00  0.00    -0.190 F 
ATOM     40  F   UNL A   1       1.082  -1.594   4.520  0.00  0.00    -0.190 F 
BRANCH  38  41
ATOM     41  C   UNL A   1       2.883  -2.510   5.772  0.00  0.00    +0.440 C 
ATOM     42  F   UNL A   1       3.527  -3.685   5.612  0.00  0.00    -0.165 F 
ATOM     43  F   UNL A   1       3.732  -1.692   6.448  0.00  0.00    -0.165 F 
ATOM     44  F   UNL A   1       1.843  -2.743   6.614  0.00  0.00    -0.165 F 
ENDBRANCH  38  41
ENDBRANCH  35  38
ENDBRANCH  32  35
ENDBRANCH  29  32
ENDBRANCH  26  29
ENDBRANCH  23  26
ENDBRANCH   1  23
TORSDOF 14
