REMARK  Name = *****
REMARK  13 active torsions:
REMARK  status: ('A' for Active; 'I' for Inactive)
REMARK    1  A    between atoms: C_1  and  C_2
REMARK    2  A    between atoms: C_2  and  N_3
REMARK    3  A    between atoms: N_3  and  S_4
REMARK    4  A    between atoms: N_3  and  C_32
REMARK    5  A    between atoms: S_4  and  C_7
REMARK    6  A    between atoms: C_7  and  C_8
REMARK    7  A    between atoms: C_8  and  C_9
REMARK    8  A    between atoms: C_9  and  C_10
REMARK    9  A    between atoms: C_10  and  C_11
REMARK   10  A    between atoms: C_11  and  C_12
REMARK   11  A    between atoms: C_12  and  C_13
REMARK   12  A    between atoms: C_13  and  C_14
REMARK   13  A    between atoms: C_32  and  C_33
REMARK                            x       y       z     vdW  Elec       q    Type
REMARK                         _______ _______ _______ _____ _____    ______ ____
ROOT
ATOM      1  C   UNL A   1       0.244   2.927  -1.007  0.00  0.00    +0.419 C 
ATOM      2  F   UNL A   1      -1.092   3.249  -1.075  0.00  0.00    -0.193 F 
ATOM      3  F   UNL A   1       0.856   3.963  -1.664  0.00  0.00    -0.193 F 
ENDROOT
BRANCH   1   4
ATOM      4  C   UNL A   1       0.655   2.932   0.450  0.00  0.00    +0.449 C 
ATOM      5  F   UNL A   1      -0.113   2.030   1.118  0.00  0.00    -0.169 F 
ATOM      6  F   UNL A   1       0.307   4.154   0.981  0.00  0.00    -0.169 F 
BRANCH   4   7
ATOM      7  S   UNL A   1       2.440   2.660   0.650  0.00  0.00    +0.085 S 
ATOM      8  O   UNL A   1       3.143   3.749  -0.016  0.00  0.00    -0.217 OA
ATOM      9  O   UNL A   1       2.784   1.293   0.298  0.00  0.00    -0.217 OA
BRANCH   7  10
ATOM     10  N   UNL A   1       2.666   2.869   2.323  0.00  0.00    -0.085 NA
BRANCH  10  11
ATOM     11  C   UNL A   1       3.951   2.786   2.685  0.00  0.00    +0.127 C 
BRANCH  11  14
ATOM     14  C   UNL A   1       5.424   2.746   3.128  0.00  0.00    +0.056 C 
ENDBRANCH  11  14
ENDBRANCH  10  11
BRANCH  10  18
ATOM     18  C   UNL A   1       1.920   2.062   3.107  0.00  0.00    +0.314 C 
BRANCH  18  21
ATOM     21  C   UNL A   1       1.031   1.132   3.907  0.00  0.00    +0.369 C 
ATOM     22  O   UNL A   1       0.539   0.177   3.251  0.00  0.00    -0.293 OA
ATOM     23  O   UNL A   1       0.874   1.443   5.119  0.00  0.00    -0.293 OA
ENDBRANCH  18  21
ENDBRANCH  10  18
ENDBRANCH   7  10
ENDBRANCH   4   7
ENDBRANCH   1   4
BRANCH   1  24
ATOM     24  C   UNL A   1       0.439   1.660  -1.827  0.00  0.00    +0.406 C 
ATOM     25  F   UNL A   1      -0.016   1.901  -3.101  0.00  0.00    -0.199 F 
ATOM     26  F   UNL A   1       1.773   1.449  -2.004  0.00  0.00    -0.199 F 
BRANCH  24  27
ATOM     27  C   UNL A   1      -0.227   0.379  -1.338  0.00  0.00    +0.402 C 
ATOM     28  F   UNL A   1       0.152  -0.650  -2.156  0.00  0.00    -0.200 F 
ATOM     29  F   UNL A   1       0.300   0.059  -0.128  0.00  0.00    -0.200 F 
BRANCH  27  30
ATOM     30  C   UNL A   1      -1.752   0.378  -1.244  0.00  0.00    +0.403 C 
ATOM     31  F   UNL A   1      -2.161  -0.842  -0.775  0.00  0.00    -0.200 F 
ATOM     32  F   UNL A   1      -2.125   1.270  -0.278  0.00  0.00    -0.200 F 
BRANCH  30  33
ATOM     33  C   UNL A   1      -2.557   0.688  -2.502  0.00  0.00    +0.408 C 
ATOM     34  F   UNL A   1      -3.887   0.675  -2.169  0.00  0.00    -0.199 F 
ATOM     35  F   UNL A   1      -2.306   1.963  -2.904  0.00  0.00    -0.199 F 
BRANCH  33  36
ATOM     36  C   UNL A   1      -2.344  -0.269  -3.649  0.00  0.00    +0.420 C 
ATOM     37  F   UNL A   1      -1.042  -0.242  -4.048  0.00  0.00    -0.190 F 
ATOM     38  F   UNL A   1      -2.577  -1.552  -3.253  0.00  0.00    -0.190 F 
BRANCH  36  39
ATOM     39  C   UNL A   1      -3.241   0.099  -4.827  0.00  0.00    +0.440 C 
ATOM     40  F   UNL A   1      -3.973   1.219  -4.646  0.00  0.00    -0.165 F 
ATOM     41  F   UNL A   1      -2.508   0.297  -5.955  0.00  0.00    -0.165 F 
ATOM     42  F   UNL A   1      -4.114  -0.898  -5.124  0.00  0.00    -0.165 F 
ENDBRANCH  36  39
ENDBRANCH  33  36
ENDBRANCH  30  33
ENDBRANCH  27  30
ENDBRANCH  24  27
ENDBRANCH   1  24
TORSDOF 13
