REMARK  Name = *****
REMARK  5 active torsions:
REMARK  status: ('A' for Active; 'I' for Inactive)
REMARK    1  A    between atoms: C_2  and  C_4
REMARK    2  A    between atoms: C_4  and  C_5
REMARK    3  A    between atoms: C_5  and  C_6
REMARK    4  A    between atoms: C_6  and  C_7
REMARK    5  A    between atoms: C_7  and  C_8
REMARK                            x       y       z     vdW  Elec       q    Type
REMARK                         _______ _______ _______ _____ _____    ______ ____
ROOT
ATOM      1  C   UNL A   1       1.299  -2.390  -1.099  0.00  0.00    +0.410 C 
ATOM      2  F   UNL A   1       1.124  -3.762  -1.010  0.00  0.00    -0.198 F 
ATOM      3  F   UNL A   1       0.461  -1.898  -0.153  0.00  0.00    -0.198 F 
ENDROOT
BRANCH   1   4
ATOM      4  C   UNL A   1       2.763  -2.122  -0.767  0.00  0.00    +0.414 C 
ATOM      5  F   UNL A   1       3.531  -2.867  -1.641  0.00  0.00    -0.197 F 
ATOM      6  F   UNL A   1       3.032  -2.686   0.457  0.00  0.00    -0.197 F 
BRANCH   4   7
ATOM      7  C   UNL A   1       3.271  -0.704  -0.806  0.00  0.00    +0.443 C 
ATOM      8  F   UNL A   1       3.231  -0.203  -2.075  0.00  0.00    -0.184 F 
ATOM      9  F   UNL A   1       4.586  -0.646  -0.435  0.00  0.00    -0.184 F 
BRANCH   7  11
ATOM     10  O   UNL A   1       1.298   0.524  -0.369  0.00  0.00    -0.266 OA
ATOM     11  C   UNL A   1       2.394   0.128   0.135  0.00  0.00    +0.437 C 
ATOM     12  O   UNL A   1       2.803   0.290   1.319  0.00  0.00    -0.266 OA
ENDBRANCH   7  11
ENDBRANCH   4   7
ENDBRANCH   1   4
BRANCH   1  13
ATOM     13  C   UNL A   1       0.875  -1.990  -2.493  0.00  0.00    +0.421 C 
ATOM     14  F   UNL A   1       1.031  -0.674  -2.768  0.00  0.00    -0.190 F 
ATOM     15  F   UNL A   1       1.677  -2.630  -3.406  0.00  0.00    -0.190 F 
BRANCH  13  16
ATOM     16  C   UNL A   1      -0.576  -2.398  -2.731  0.00  0.00    +0.440 C 
ATOM     17  F   UNL A   1      -1.173  -3.038  -1.701  0.00  0.00    -0.165 F 
ATOM     18  F   UNL A   1      -1.365  -1.337  -3.042  0.00  0.00    -0.165 F 
ATOM     19  F   UNL A   1      -0.673  -3.241  -3.800  0.00  0.00    -0.165 F 
ENDBRANCH  13  16
ENDBRANCH   1  13
TORSDOF 5
