REMARK  Name = *****
REMARK  11 active torsions:
REMARK  status: ('A' for Active; 'I' for Inactive)
REMARK    1  A    between atoms: C_2  and  C_4
REMARK    2  A    between atoms: C_4  and  C_5
REMARK    3  A    between atoms: C_5  and  C_6
REMARK    4  A    between atoms: C_6  and  C_7
REMARK    5  A    between atoms: C_7  and  C_8
REMARK    6  A    between atoms: C_8  and  C_9
REMARK    7  A    between atoms: C_9  and  C_10
REMARK    8  A    between atoms: C_10  and  C_11
REMARK    9  A    between atoms: C_11  and  C_12
REMARK   10  A    between atoms: C_12  and  C_13
REMARK   11  A    between atoms: C_13  and  C_14
REMARK                            x       y       z     vdW  Elec       q    Type
REMARK                         _______ _______ _______ _____ _____    ______ ____
ROOT
ATOM      1  C   UNL A   1       1.345  -4.283  -3.322  0.00  0.00    +0.401 C 
ATOM      2  F   UNL A   1       2.075  -5.008  -4.229  0.00  0.00    -0.201 F 
ATOM      3  F   UNL A   1       1.714  -4.807  -2.119  0.00  0.00    -0.201 F 
ENDROOT
BRANCH   1   4
ATOM      4  C   UNL A   1       1.787  -2.825  -3.407  0.00  0.00    +0.401 C 
ATOM      5  F   UNL A   1       1.542  -2.404  -4.689  0.00  0.00    -0.201 F 
ATOM      6  F   UNL A   1       3.145  -2.771  -3.301  0.00  0.00    -0.201 F 
BRANCH   4   7
ATOM      7  C   UNL A   1       1.149  -1.831  -2.438  0.00  0.00    +0.401 C 
ATOM      8  F   UNL A   1      -0.195  -1.813  -2.712  0.00  0.00    -0.201 F 
ATOM      9  F   UNL A   1       1.569  -0.584  -2.778  0.00  0.00    -0.201 F 
BRANCH   7  10
ATOM     10  C   UNL A   1       1.340  -2.099  -0.946  0.00  0.00    +0.403 C 
ATOM     11  F   UNL A   1       0.763  -3.325  -0.689  0.00  0.00    -0.200 F 
ATOM     12  F   UNL A   1       0.572  -1.245  -0.217  0.00  0.00    -0.200 F 
BRANCH  10  13
ATOM     13  C   UNL A   1       2.772  -2.141  -0.416  0.00  0.00    +0.412 C 
ATOM     14  F   UNL A   1       3.408  -3.189  -1.044  0.00  0.00    -0.198 F 
ATOM     15  F   UNL A   1       2.741  -2.531   0.896  0.00  0.00    -0.198 F 
BRANCH  13  16
ATOM     16  C   UNL A   1       3.617  -0.906  -0.589  0.00  0.00    +0.442 C 
ATOM     17  F   UNL A   1       3.773  -0.613  -1.912  0.00  0.00    -0.184 F 
ATOM     18  F   UNL A   1       4.881  -1.111  -0.109  0.00  0.00    -0.184 F 
BRANCH  16  20
ATOM     19  O   UNL A   1       2.087   0.902  -0.526  0.00  0.00    -0.266 OA
ATOM     20  C   UNL A   1       2.939   0.248   0.158  0.00  0.00    +0.437 C 
ATOM     21  O   UNL A   1       3.237   0.404   1.369  0.00  0.00    -0.266 OA
ENDBRANCH  16  20
ENDBRANCH  13  16
ENDBRANCH  10  13
ENDBRANCH   7  10
ENDBRANCH   4   7
ENDBRANCH   1   4
BRANCH   1  22
ATOM     22  C   UNL A   1      -0.132  -4.590  -3.570  0.00  0.00    +0.401 C 
ATOM     23  F   UNL A   1      -0.344  -5.927  -3.355  0.00  0.00    -0.201 F 
ATOM     24  F   UNL A   1      -0.889  -3.989  -2.609  0.00  0.00    -0.201 F 
BRANCH  22  25
ATOM     25  C   UNL A   1      -0.696  -4.241  -4.947  0.00  0.00    +0.403 C 
ATOM     26  F   UNL A   1      -2.021  -4.598  -4.970  0.00  0.00    -0.200 F 
ATOM     27  F   UNL A   1      -0.711  -2.882  -5.084  0.00  0.00    -0.200 F 
BRANCH  25  28
ATOM     28  C   UNL A   1      -0.025  -4.848  -6.176  0.00  0.00    +0.408 C 
ATOM     29  F   UNL A   1      -0.676  -4.397  -7.292  0.00  0.00    -0.199 F 
ATOM     30  F   UNL A   1       1.243  -4.367  -6.287  0.00  0.00    -0.199 F 
BRANCH  28  31
ATOM     31  C   UNL A   1      -0.008  -6.358  -6.197  0.00  0.00    +0.420 C 
ATOM     32  F   UNL A   1       0.718  -6.824  -5.143  0.00  0.00    -0.190 F 
ATOM     33  F   UNL A   1      -1.263  -6.860  -6.022  0.00  0.00    -0.190 F 
BRANCH  31  34
ATOM     34  C   UNL A   1       0.599  -6.876  -7.494  0.00  0.00    +0.440 C 
ATOM     35  F   UNL A   1       1.282  -5.947  -8.197  0.00  0.00    -0.165 F 
ATOM     36  F   UNL A   1       1.464  -7.896  -7.253  0.00  0.00    -0.165 F 
ATOM     37  F   UNL A   1      -0.350  -7.380  -8.324  0.00  0.00    -0.165 F 
ENDBRANCH  31  34
ENDBRANCH  28  31
ENDBRANCH  25  28
ENDBRANCH  22  25
ENDBRANCH   1  22
TORSDOF 11
