REMARK  Name = *****
REMARK  7 active torsions:
REMARK  status: ('A' for Active; 'I' for Inactive)
REMARK    1  A    between atoms: C_2  and  C_4
REMARK    2  A    between atoms: C_4  and  C_5
REMARK    3  A    between atoms: C_5  and  C_6
REMARK    4  A    between atoms: C_6  and  C_7
REMARK    5  A    between atoms: C_7  and  C_8
REMARK    6  A    between atoms: C_8  and  C_9
REMARK    7  A    between atoms: C_9  and  C_10
REMARK                            x       y       z     vdW  Elec       q    Type
REMARK                         _______ _______ _______ _____ _____    ______ ____
ROOT
ATOM      1  C   UNL A   1       0.890  -2.006  -2.503  0.00  0.00    +0.403 C 
ATOM      2  F   UNL A   1      -0.463  -2.216  -2.649  0.00  0.00    -0.200 F 
ATOM      3  F   UNL A   1       1.062  -0.696  -2.832  0.00  0.00    -0.200 F 
ENDROOT
BRANCH   1   4
ATOM      4  C   UNL A   1       1.249  -2.250  -1.038  0.00  0.00    +0.404 C 
ATOM      5  F   UNL A   1       0.838  -3.532  -0.736  0.00  0.00    -0.200 F 
ATOM      6  F   UNL A   1       0.461  -1.485  -0.233  0.00  0.00    -0.200 F 
BRANCH   4   7
ATOM      7  C   UNL A   1       2.719  -2.132  -0.644  0.00  0.00    +0.412 C 
ATOM      8  F   UNL A   1       3.408  -3.082  -1.370  0.00  0.00    -0.198 F 
ATOM      9  F   UNL A   1       2.862  -2.557   0.650  0.00  0.00    -0.198 F 
BRANCH   7  10
ATOM     10  C   UNL A   1       3.401  -0.808  -0.853  0.00  0.00    +0.442 C 
ATOM     11  F   UNL A   1       3.382  -0.463  -2.173  0.00  0.00    -0.184 F 
ATOM     12  F   UNL A   1       4.722  -0.884  -0.512  0.00  0.00    -0.184 F 
BRANCH  10  14
ATOM     13  O   UNL A   1       1.726   0.841  -0.573  0.00  0.00    -0.266 OA
ATOM     14  C   UNL A   1       2.683   0.249   0.000  0.00  0.00    +0.437 C 
ATOM     15  O   UNL A   1       3.086   0.393   1.192  0.00  0.00    -0.266 OA
ENDBRANCH  10  14
ENDBRANCH   7  10
ENDBRANCH   4   7
ENDBRANCH   1   4
BRANCH   1  16
ATOM     16  C   UNL A   1       1.593  -2.848  -3.564  0.00  0.00    +0.408 C 
ATOM     17  F   UNL A   1       1.124  -2.451  -4.793  0.00  0.00    -0.199 F 
ATOM     18  F   UNL A   1       2.924  -2.573  -3.591  0.00  0.00    -0.199 F 
BRANCH  16  19
ATOM     19  C   UNL A   1       1.377  -4.339  -3.450  0.00  0.00    +0.420 C 
ATOM     20  F   UNL A   1       1.880  -4.821  -2.282  0.00  0.00    -0.190 F 
ATOM     21  F   UNL A   1       0.043  -4.627  -3.414  0.00  0.00    -0.190 F 
BRANCH  19  22
ATOM     22  C   UNL A   1       2.038  -5.064  -4.618  0.00  0.00    +0.440 C 
ATOM     23  F   UNL A   1       2.741  -4.272  -5.455  0.00  0.00    -0.165 F 
ATOM     24  F   UNL A   1       2.899  -6.022  -4.179  0.00  0.00    -0.165 F 
ATOM     25  F   UNL A   1       1.122  -5.720  -5.380  0.00  0.00    -0.165 F 
ENDBRANCH  19  22
ENDBRANCH  16  19
ENDBRANCH   1  16
TORSDOF 7
