REMARK  Name = *****
REMARK  9 active torsions:
REMARK  status: ('A' for Active; 'I' for Inactive)
REMARK    1  A    between atoms: C_2  and  C_4
REMARK    2  A    between atoms: C_4  and  C_5
REMARK    3  A    between atoms: C_5  and  C_6
REMARK    4  A    between atoms: C_6  and  C_7
REMARK    5  A    between atoms: C_7  and  C_8
REMARK    6  A    between atoms: C_8  and  C_9
REMARK    7  A    between atoms: C_9  and  C_10
REMARK    8  A    between atoms: C_10  and  C_11
REMARK    9  A    between atoms: C_11  and  C_12
REMARK                            x       y       z     vdW  Elec       q    Type
REMARK                         _______ _______ _______ _____ _____    ______ ____
ROOT
ATOM      1  C   UNL A   1       1.734  -2.836  -3.489  0.00  0.00    +0.401 C 
ATOM      2  F   UNL A   1       1.500  -2.379  -4.761  0.00  0.00    -0.201 F 
ATOM      3  F   UNL A   1       3.085  -2.701  -3.347  0.00  0.00    -0.201 F 
ENDROOT
BRANCH   1   4
ATOM      4  C   UNL A   1       1.014  -1.923  -2.500  0.00  0.00    +0.401 C 
ATOM      5  F   UNL A   1      -0.330  -2.018  -2.775  0.00  0.00    -0.201 F 
ATOM      6  F   UNL A   1       1.324  -0.637  -2.807  0.00  0.00    -0.201 F 
BRANCH   4   7
ATOM      7  C   UNL A   1       1.222  -2.210  -1.013  0.00  0.00    +0.403 C 
ATOM      8  F   UNL A   1       0.752  -3.488  -0.793  0.00  0.00    -0.200 F 
ATOM      9  F   UNL A   1       0.375  -1.443  -0.272  0.00  0.00    -0.200 F 
BRANCH   7  10
ATOM     10  C   UNL A   1       2.645  -2.143  -0.466  0.00  0.00    +0.412 C 
ATOM     11  F   UNL A   1       3.371  -3.125  -1.102  0.00  0.00    -0.198 F 
ATOM     12  F   UNL A   1       2.630  -2.559   0.839  0.00  0.00    -0.198 F 
BRANCH  10  13
ATOM     13  C   UNL A   1       3.389  -0.841  -0.605  0.00  0.00    +0.442 C 
ATOM     14  F   UNL A   1       3.529  -0.508  -1.922  0.00  0.00    -0.184 F 
ATOM     15  F   UNL A   1       4.662  -0.952  -0.119  0.00  0.00    -0.184 F 
BRANCH  13  17
ATOM     16  O   UNL A   1       1.716   0.836  -0.513  0.00  0.00    -0.266 OA
ATOM     17  C   UNL A   1       2.611   0.236   0.154  0.00  0.00    +0.437 C 
ATOM     18  O   UNL A   1       2.889   0.394   1.382  0.00  0.00    -0.266 OA
ENDBRANCH  13  17
ENDBRANCH  10  13
ENDBRANCH   7  10
ENDBRANCH   4   7
ENDBRANCH   1   4
BRANCH   1  19
ATOM     19  C   UNL A   1       1.379  -4.321  -3.464  0.00  0.00    +0.403 C 
ATOM     20  F   UNL A   1       2.119  -4.952  -4.436  0.00  0.00    -0.200 F 
ATOM     21  F   UNL A   1       1.829  -4.872  -2.298  0.00  0.00    -0.200 F 
BRANCH  19  22
ATOM     22  C   UNL A   1      -0.081  -4.722  -3.659  0.00  0.00    +0.408 C 
ATOM     23  F   UNL A   1      -0.155  -6.090  -3.582  0.00  0.00    -0.199 F 
ATOM     24  F   UNL A   1      -0.835  -4.269  -2.624  0.00  0.00    -0.199 F 
BRANCH  22  25
ATOM     25  C   UNL A   1      -0.682  -4.288  -4.975  0.00  0.00    +0.420 C 
ATOM     26  F   UNL A   1      -0.681  -2.931  -5.076  0.00  0.00    -0.190 F 
ATOM     27  F   UNL A   1       0.085  -4.727  -6.014  0.00  0.00    -0.190 F 
BRANCH  25  28
ATOM     28  C   UNL A   1      -2.110  -4.804  -5.114  0.00  0.00    +0.440 C 
ATOM     29  F   UNL A   1      -2.591  -5.426  -4.017  0.00  0.00    -0.165 F 
ATOM     30  F   UNL A   1      -2.973  -3.795  -5.400  0.00  0.00    -0.165 F 
ATOM     31  F   UNL A   1      -2.220  -5.686  -6.142  0.00  0.00    -0.165 F 
ENDBRANCH  25  28
ENDBRANCH  22  25
ENDBRANCH  19  22
ENDBRANCH   1  19
TORSDOF 9
