REMARK  Name = *****
REMARK  3 active torsions:
REMARK  status: ('A' for Active; 'I' for Inactive)
REMARK    1  A    between atoms: C_2  and  C_4
REMARK    2  A    between atoms: C_4  and  C_5
REMARK    3  A    between atoms: C_5  and  C_6
REMARK                            x       y       z     vdW  Elec       q    Type
REMARK                         _______ _______ _______ _____ _____    ______ ____
ROOT
ATOM      1  C   UNL A   1       2.793  -2.165  -0.873  0.00  0.00    +0.432 C 
ATOM      2  F   UNL A   1       3.492  -2.822  -1.877  0.00  0.00    -0.187 F 
ATOM      3  F   UNL A   1       3.259  -2.748   0.270  0.00  0.00    -0.187 F 
ENDROOT
BRANCH   1   4
ATOM      4  C   UNL A   1       1.307  -2.445  -1.078  0.00  0.00    +0.442 C 
ATOM      5  F   UNL A   1       0.677  -1.544  -1.867  0.00  0.00    -0.164 F 
ATOM      6  F   UNL A   1       1.162  -3.649  -1.722  0.00  0.00    -0.164 F 
ATOM      7  F   UNL A   1       0.588  -2.594   0.058  0.00  0.00    -0.164 F 
ENDBRANCH   1   4
BRANCH   1   8
ATOM      8  C   UNL A   1       3.165  -0.710  -0.986  0.00  0.00    +0.449 C 
ATOM      9  F   UNL A   1       2.917  -0.277  -2.265  0.00  0.00    -0.183 F 
ATOM     10  F   UNL A   1       4.513  -0.562  -0.805  0.00  0.00    -0.183 F 
BRANCH   8  12
ATOM     11  O   UNL A   1       1.607  -0.369   0.767  0.00  0.00    -0.265 OA
ATOM     12  C   UNL A   1       2.417   0.206  -0.010  0.00  0.00    +0.439 C 
ATOM     13  O   UNL A   1       2.669   1.446  -0.087  0.00  0.00    -0.265 OA
ENDBRANCH   8  12
ENDBRANCH   1   8
TORSDOF 3
