REMARK  Name = *****
REMARK  7 active torsions:
REMARK  status: ('A' for Active; 'I' for Inactive)
REMARK    1  A    between atoms: C_2  and  C_3
REMARK    2  A    between atoms: C_2  and  S_13
REMARK    3  A    between atoms: C_3  and  C_4
REMARK    4  A    between atoms: C_4  and  C_5
REMARK    5  A    between atoms: S_13  and  O_14
REMARK    6  A    between atoms: S_13  and  O_15
REMARK    7  A    between atoms: S_13  and  O_16
REMARK                            x       y       z     vdW  Elec       q    Type
REMARK                         _______ _______ _______ _____ _____    ______ ____
ROOT
ATOM      1  F   UNL A   1       2.889  -0.993  -0.602  0.00  0.00    -0.172 F 
ATOM      2  C   UNL A   1       2.279  -0.062   0.210  0.00  0.00    +0.448 C 
ATOM      3  F   UNL A   1       2.704  -0.398   1.481  0.00  0.00    -0.172 F 
ENDROOT
BRANCH   2   4
ATOM      4  C   UNL A   1       2.831   1.300  -0.129  0.00  0.00    +0.424 C 
ATOM      5  F   UNL A   1       4.215   1.200   0.007  0.00  0.00    -0.192 F 
ATOM      6  F   UNL A   1       2.687   1.581  -1.463  0.00  0.00    -0.192 F 
BRANCH   4   7
ATOM      7  C   UNL A   1       2.419   2.511   0.681  0.00  0.00    +0.425 C 
ATOM      8  F   UNL A   1       3.236   3.549   0.245  0.00  0.00    -0.189 F 
ATOM      9  F   UNL A   1       1.173   2.956   0.400  0.00  0.00    -0.189 F 
BRANCH   7  10
ATOM     10  C   UNL A   1       2.657   2.366   2.179  0.00  0.00    +0.441 C 
ATOM     11  F   UNL A   1       3.849   1.777   2.450  0.00  0.00    -0.164 F 
ATOM     12  F   UNL A   1       2.707   3.592   2.775  0.00  0.00    -0.164 F 
ATOM     13  F   UNL A   1       1.723   1.668   2.846  0.00  0.00    -0.164 F 
ENDBRANCH   7  10
ENDBRANCH   4   7
ENDBRANCH   2   4
BRANCH   2  14
ATOM     14  S   UNL A   1       0.483  -0.094   0.059  0.00  0.00    +0.092 S 
BRANCH  14  15
ATOM     15  O   UNL A   1       0.032   0.743   1.175  0.00  0.00    -0.077 OA
ENDBRANCH  14  15
BRANCH  14  17
ATOM     17  O   UNL A   1       0.195   0.478  -1.252  0.00  0.00    -0.077 OA
ENDBRANCH  14  17
BRANCH  14  19
ATOM     19  O   UNL A   1       0.113  -1.501   0.194  0.00  0.00    -0.077 OA
ENDBRANCH  14  19
ENDBRANCH   2  14
TORSDOF 7
