REMARK  Name = *****
REMARK  13 active torsions:
REMARK  status: ('A' for Active; 'I' for Inactive)
REMARK    1  A    between atoms: C_2  and  C_4
REMARK    2  A    between atoms: C_4  and  C_5
REMARK    3  A    between atoms: C_5  and  C_6
REMARK    4  A    between atoms: C_6  and  C_7
REMARK    5  A    between atoms: C_7  and  C_8
REMARK    6  A    between atoms: C_8  and  C_9
REMARK    7  A    between atoms: C_9  and  C_10
REMARK    8  A    between atoms: C_10  and  C_11
REMARK    9  A    between atoms: C_11  and  C_12
REMARK   10  A    between atoms: C_12  and  C_13
REMARK   11  A    between atoms: C_13  and  C_14
REMARK   12  A    between atoms: C_14  and  C_15
REMARK   13  A    between atoms: C_15  and  C_16
REMARK                            x       y       z     vdW  Elec       q    Type
REMARK                         _______ _______ _______ _____ _____    ______ ____
ROOT
ATOM      1  C   UNL A   1      -0.207  -4.413   3.744  0.00  0.00    +0.401 C 
ATOM      2  F   UNL A   1      -0.478  -4.481   5.084  0.00  0.00    -0.201 F 
ATOM      3  F   UNL A   1      -1.001  -3.395   3.307  0.00  0.00    -0.201 F 
ENDROOT
BRANCH   1   4
ATOM      4  C   UNL A   1       1.260  -4.030   3.559  0.00  0.00    +0.401 C 
ATOM      5  F   UNL A   1       2.020  -4.988   4.176  0.00  0.00    -0.201 F 
ATOM      6  F   UNL A   1       1.522  -2.905   4.281  0.00  0.00    -0.201 F 
BRANCH   4   7
ATOM      7  C   UNL A   1       1.752  -3.857   2.123  0.00  0.00    +0.401 C 
ATOM      8  F   UNL A   1       1.613  -5.069   1.497  0.00  0.00    -0.201 F 
ATOM      9  F   UNL A   1       3.100  -3.659   2.139  0.00  0.00    -0.201 F 
BRANCH   7  10
ATOM     10  C   UNL A   1       1.073  -2.783   1.275  0.00  0.00    +0.401 C 
ATOM     11  F   UNL A   1      -0.256  -3.116   1.184  0.00  0.00    -0.201 F 
ATOM     12  F   UNL A   1       1.526  -2.901   0.001  0.00  0.00    -0.201 F 
BRANCH  10  13
ATOM     13  C   UNL A   1       1.181  -1.343   1.780  0.00  0.00    +0.403 C 
ATOM     14  F   UNL A   1       0.566  -1.310   3.014  0.00  0.00    -0.200 F 
ATOM     15  F   UNL A   1       0.396  -0.524   1.030  0.00  0.00    -0.200 F 
BRANCH  13  16
ATOM     16  C   UNL A   1       2.585  -0.765   1.944  0.00  0.00    +0.412 C 
ATOM     17  F   UNL A   1       3.230  -1.521   2.898  0.00  0.00    -0.198 F 
ATOM     18  F   UNL A   1       2.488   0.466   2.536  0.00  0.00    -0.198 F 
BRANCH  16  19
ATOM     19  C   UNL A   1       3.458  -0.707   0.717  0.00  0.00    +0.442 C 
ATOM     20  F   UNL A   1       3.671  -1.962   0.221  0.00  0.00    -0.184 F 
ATOM     21  F   UNL A   1       4.697  -0.219   1.018  0.00  0.00    -0.184 F 
BRANCH  19  23
ATOM     22  O   UNL A   1       1.975  -0.423  -1.106  0.00  0.00    -0.266 OA
ATOM     23  C   UNL A   1       2.756   0.175  -0.321  0.00  0.00    +0.437 C 
ATOM     24  O   UNL A   1       2.990   1.426  -0.259  0.00  0.00    -0.266 OA
ENDBRANCH  19  23
ENDBRANCH  16  19
ENDBRANCH  13  16
ENDBRANCH  10  13
ENDBRANCH   7  10
ENDBRANCH   4   7
ENDBRANCH   1   4
BRANCH   1  25
ATOM     25  C   UNL A   1      -0.671  -5.720   3.104  0.00  0.00    +0.401 C 
ATOM     26  F   UNL A   1      -2.019  -5.851   3.308  0.00  0.00    -0.201 F 
ATOM     27  F   UNL A   1      -0.555  -5.631   1.750  0.00  0.00    -0.201 F 
BRANCH  25  28
ATOM     28  C   UNL A   1       0.008  -7.003   3.582  0.00  0.00    +0.401 C 
ATOM     29  F   UNL A   1      -0.436  -8.052   2.826  0.00  0.00    -0.201 F 
ATOM     30  F   UNL A   1       1.339  -6.944   3.293  0.00  0.00    -0.201 F 
BRANCH  28  31
ATOM     31  C   UNL A   1      -0.170  -7.365   5.056  0.00  0.00    +0.403 C 
ATOM     32  F   UNL A   1       0.508  -8.531   5.299  0.00  0.00    -0.200 F 
ATOM     33  F   UNL A   1       0.480  -6.435   5.818  0.00  0.00    -0.200 F 
BRANCH  31  34
ATOM     34  C   UNL A   1      -1.593  -7.523   5.586  0.00  0.00    +0.408 C 
ATOM     35  F   UNL A   1      -1.532  -7.840   6.915  0.00  0.00    -0.199 F 
ATOM     36  F   UNL A   1      -2.227  -6.320   5.539  0.00  0.00    -0.199 F 
BRANCH  34  37
ATOM     37  C   UNL A   1      -2.406  -8.570   4.862  0.00  0.00    +0.420 C 
ATOM     38  F   UNL A   1      -2.551  -8.210   3.557  0.00  0.00    -0.190 F 
ATOM     39  F   UNL A   1      -1.749  -9.763   4.839  0.00  0.00    -0.190 F 
BRANCH  37  40
ATOM     40  C   UNL A   1      -3.782  -8.727   5.491  0.00  0.00    +0.440 C 
ATOM     41  F   UNL A   1      -4.152  -7.690   6.272  0.00  0.00    -0.165 F 
ATOM     42  F   UNL A   1      -4.739  -8.855   4.535  0.00  0.00    -0.165 F 
ATOM     43  F   UNL A   1      -3.859  -9.846   6.253  0.00  0.00    -0.165 F 
ENDBRANCH  37  40
ENDBRANCH  34  37
ENDBRANCH  31  34
ENDBRANCH  28  31
ENDBRANCH  25  28
ENDBRANCH   1  25
TORSDOF 13
