REMARK  Name = *****
REMARK  11 active torsions:
REMARK  status: ('A' for Active; 'I' for Inactive)
REMARK    1  A    between atoms: C_1  and  C_2
REMARK    2  A    between atoms: C_2  and  N_3
REMARK    3  A    between atoms: N_3  and  S_4
REMARK    4  A    between atoms: S_4  and  C_7
REMARK    5  A    between atoms: C_7  and  C_8
REMARK    6  A    between atoms: C_8  and  C_9
REMARK    7  A    between atoms: C_9  and  C_10
REMARK    8  A    between atoms: C_10  and  C_11
REMARK    9  A    between atoms: C_11  and  C_12
REMARK   10  A    between atoms: C_12  and  C_13
REMARK   11  A    between atoms: C_13  and  C_14
REMARK                            x       y       z     vdW  Elec       q    Type
REMARK                         _______ _______ _______ _____ _____    ______ ____
ROOT
ATOM      1  C   UNL A   1       3.274  -2.759   2.809  0.00  0.00    +0.406 C 
ATOM      2  F   UNL A   1       2.803  -2.774   4.106  0.00  0.00    -0.199 F 
ATOM      3  F   UNL A   1       2.645  -1.679   2.279  0.00  0.00    -0.199 F 
ENDROOT
BRANCH   1   4
ATOM      4  C   UNL A   1       4.781  -2.546   2.871  0.00  0.00    +0.420 C 
ATOM      5  F   UNL A   1       5.281  -3.541   3.691  0.00  0.00    -0.193 F 
ATOM      6  F   UNL A   1       5.038  -1.404   3.582  0.00  0.00    -0.193 F 
BRANCH   4   7
ATOM      7  C   UNL A   1       5.582  -2.578   1.577  0.00  0.00    +0.454 C 
ATOM      8  F   UNL A   1       5.473  -3.830   1.039  0.00  0.00    -0.168 F 
ATOM      9  F   UNL A   1       6.916  -2.463   1.902  0.00  0.00    -0.168 F 
BRANCH   7  10
ATOM     10  S   UNL A   1       5.108  -1.274   0.413  0.00  0.00    +0.098 S 
ATOM     11  O   UNL A   1       5.299  -0.025   1.149  0.00  0.00    -0.211 OA
ATOM     12  O   UNL A   1       3.712  -1.544   0.059  0.00  0.00    -0.211 OA
BRANCH  10  13
ATOM     13  N   UNL A   1       6.165  -1.503  -0.759  0.00  0.00    -0.058 NA
BRANCH  13  15
ATOM     15  C   UNL A   1       5.846  -2.688  -1.545  0.00  0.00    +0.153 C 
BRANCH  15  18
ATOM     18  C   UNL A   1       5.559  -3.943  -2.381  0.00  0.00    +0.067 C 
ENDBRANCH  15  18
ENDBRANCH  13  15
ENDBRANCH  10  13
ENDBRANCH   7  10
ENDBRANCH   4   7
ENDBRANCH   1   4
BRANCH   1  22
ATOM     22  C   UNL A   1       2.774  -4.042   2.145  0.00  0.00    +0.402 C 
ATOM     23  F   UNL A   1       1.405  -4.008   2.094  0.00  0.00    -0.200 F 
ATOM     24  F   UNL A   1       3.154  -4.085   0.841  0.00  0.00    -0.200 F 
BRANCH  22  25
ATOM     25  C   UNL A   1       3.175  -5.360   2.809  0.00  0.00    +0.403 C 
ATOM     26  F   UNL A   1       2.632  -6.390   2.079  0.00  0.00    -0.200 F 
ATOM     27  F   UNL A   1       4.524  -5.533   2.685  0.00  0.00    -0.200 F 
BRANCH  25  28
ATOM     28  C   UNL A   1       2.801  -5.589   4.270  0.00  0.00    +0.408 C 
ATOM     29  F   UNL A   1       3.260  -6.830   4.634  0.00  0.00    -0.199 F 
ATOM     30  F   UNL A   1       3.477  -4.721   5.069  0.00  0.00    -0.199 F 
BRANCH  28  31
ATOM     31  C   UNL A   1       1.321  -5.527   4.564  0.00  0.00    +0.420 C 
ATOM     32  F   UNL A   1       0.828  -4.294   4.271  0.00  0.00    -0.190 F 
ATOM     33  F   UNL A   1       0.639  -6.392   3.762  0.00  0.00    -0.190 F 
BRANCH  31  34
ATOM     34  C   UNL A   1       1.052  -5.840   6.032  0.00  0.00    +0.440 C 
ATOM     35  F   UNL A   1       2.161  -5.978   6.790  0.00  0.00    -0.165 F 
ATOM     36  F   UNL A   1       0.305  -4.864   6.614  0.00  0.00    -0.165 F 
ATOM     37  F   UNL A   1       0.337  -6.986   6.175  0.00  0.00    -0.165 F 
ENDBRANCH  31  34
ENDBRANCH  28  31
ENDBRANCH  25  28
ENDBRANCH  22  25
ENDBRANCH   1  22
TORSDOF 11
