REMARK  Name = *****
REMARK  9 active torsions:
REMARK  status: ('A' for Active; 'I' for Inactive)
REMARK    1  A    between atoms: C_2  and  C_3
REMARK    2  A    between atoms: C_2  and  C_19
REMARK    3  A    between atoms: C_3  and  C_4
REMARK    4  A    between atoms: C_4  and  C_5
REMARK    5  A    between atoms: C_5  and  C_6
REMARK    6  A    between atoms: C_6  and  S_7
REMARK    7  A    between atoms: S_7  and  N_10
REMARK    8  A    between atoms: C_19  and  C_20
REMARK    9  A    between atoms: C_20  and  C_21
REMARK                            x       y       z     vdW  Elec       q    Type
REMARK                         _______ _______ _______ _____ _____    ______ ____
ROOT
ATOM      1  C   UNL A   1       2.648   0.144  -1.435  0.00  0.00    +0.402 C 
ATOM      2  F   UNL A   1       4.015   0.115  -1.455  0.00  0.00    -0.200 F 
ATOM      3  F   UNL A   1       2.284  -0.983  -2.116  0.00  0.00    -0.200 F 
ENDROOT
BRANCH   1   5
ATOM      4  F   UNL A   1       2.707  -1.126   0.538  0.00  0.00    -0.200 F 
ATOM      5  C   UNL A   1       2.173   0.017   0.007  0.00  0.00    +0.403 C 
ATOM      6  F   UNL A   1       2.756   1.032   0.719  0.00  0.00    -0.200 F 
BRANCH   5   7
ATOM      7  C   UNL A   1       0.674   0.032   0.287  0.00  0.00    +0.408 C 
ATOM      8  F   UNL A   1       0.507  -0.023   1.645  0.00  0.00    -0.199 F 
ATOM      9  F   UNL A   1       0.159   1.232  -0.092  0.00  0.00    -0.199 F 
BRANCH   7  10
ATOM     10  C   UNL A   1      -0.107  -1.094  -0.344  0.00  0.00    +0.420 C 
ATOM     11  F   UNL A   1       0.008  -1.035  -1.700  0.00  0.00    -0.190 F 
ATOM     12  F   UNL A   1       0.431  -2.293   0.013  0.00  0.00    -0.190 F 
BRANCH  10  13
ATOM     13  C   UNL A   1      -1.578  -1.016   0.058  0.00  0.00    +0.440 C 
ATOM     14  F   UNL A   1      -1.870   0.006   0.891  0.00  0.00    -0.165 F 
ATOM     15  F   UNL A   1      -2.375  -0.866  -1.032  0.00  0.00    -0.165 F 
ATOM     16  F   UNL A   1      -1.988  -2.154   0.671  0.00  0.00    -0.165 F 
ENDBRANCH  10  13
ENDBRANCH   7  10
ENDBRANCH   5   7
ENDBRANCH   1   5
BRANCH   1  17
ATOM     17  C   UNL A   1       2.179   1.365  -2.214  0.00  0.00    +0.407 C 
ATOM     18  F   UNL A   1       2.648   1.262  -3.497  0.00  0.00    -0.199 F 
ATOM     19  F   UNL A   1       0.818   1.278  -2.339  0.00  0.00    -0.199 F 
BRANCH  17  20
ATOM     20  C   UNL A   1       2.525   2.752  -1.689  0.00  0.00    +0.422 C 
ATOM     21  F   UNL A   1       1.896   3.653  -2.502  0.00  0.00    -0.193 F 
ATOM     22  F   UNL A   1       1.964   2.922  -0.464  0.00  0.00    -0.193 F 
BRANCH  20  23
ATOM     23  C   UNL A   1       4.006   3.046  -1.651  0.00  0.00    +0.463 C 
ATOM     24  F   UNL A   1       4.624   2.232  -0.747  0.00  0.00    -0.167 F 
ATOM     25  F   UNL A   1       4.585   2.762  -2.854  0.00  0.00    -0.167 F 
BRANCH  23  26
ATOM     26  S   UNL A   1       4.231   4.781  -1.212  0.00  0.00    +0.134 S 
ATOM     27  O   UNL A   1       3.721   5.651  -2.253  0.00  0.00    -0.201 OA
ATOM     28  O   UNL A   1       3.876   4.995   0.180  0.00  0.00    -0.201 OA
BRANCH  26  29
ATOM     29  N   UNL A   1       5.923   5.033  -1.254  0.00  0.00    +0.094 NA
ENDBRANCH  26  29
ENDBRANCH  23  26
ENDBRANCH  20  23
ENDBRANCH  17  20
ENDBRANCH   1  17
TORSDOF 9
