REMARK  Name = *****
REMARK  8 active torsions:
REMARK  status: ('A' for Active; 'I' for Inactive)
REMARK    1  A    between atoms: C_2  and  C_4
REMARK    2  A    between atoms: C_4  and  C_5
REMARK    3  A    between atoms: C_5  and  O_6
REMARK    4  A    between atoms: O_6  and  C_7
REMARK    5  A    between atoms: C_7  and  C_8
REMARK    6  A    between atoms: C_8  and  C_9
REMARK    7  A    between atoms: C_9  and  O_10
REMARK    8  A    between atoms: O_10  and  C_11
REMARK                            x       y       z     vdW  Elec       q    Type
REMARK                         _______ _______ _______ _____ _____    ______ ____
ROOT
ATOM      1  C   UNL A   1       3.088  -3.500   2.123  0.00  0.00    +0.414 C 
ATOM      2  F   UNL A   1       3.424  -3.528   0.805  0.00  0.00    -0.177 F 
ATOM      3  F   UNL A   1       3.880  -4.422   2.747  0.00  0.00    -0.177 F 
ENDROOT
BRANCH   1   4
ATOM      4  C   UNL A   1       1.631  -3.910   2.293  0.00  0.00    +0.422 C 
ATOM      5  F   UNL A   1       1.456  -5.194   1.851  0.00  0.00    -0.185 F 
ATOM      6  F   UNL A   1       1.278  -3.948   3.613  0.00  0.00    -0.185 F 
BRANCH   4   7
ATOM      7  C   UNL A   1       0.714  -2.951   1.533  0.00  0.00    +0.426 C 
ATOM      8  F   UNL A   1       0.822  -1.702   2.055  0.00  0.00    -0.174 F 
ATOM      9  F   UNL A   1       1.050  -2.824   0.227  0.00  0.00    -0.174 F 
BRANCH   7  10
ATOM     10  O   UNL A   1      -0.667  -3.241   1.594  0.00  0.00    -0.159 OA
BRANCH  10  11
ATOM     11  C   UNL A   1      -1.006  -4.390   0.871  0.00  0.00    +0.467 C 
ATOM     12  F   UNL A   1      -0.029  -4.836   0.063  0.00  0.00    -0.138 F 
ATOM     13  F   UNL A   1      -1.335  -5.368   1.738  0.00  0.00    -0.138 F 
ATOM     14  F   UNL A   1      -2.089  -4.118   0.114  0.00  0.00    -0.138 F 
ENDBRANCH  10  11
ENDBRANCH   7  10
ENDBRANCH   4   7
ENDBRANCH   1   4
BRANCH   1  15
ATOM     15  O   UNL A   1       3.386  -2.222   2.665  0.00  0.00    -0.212 OA
BRANCH  15  16
ATOM     16  C   UNL A   1       4.706  -1.859   2.467  0.00  0.00    +0.384 C 
ATOM     17  F   UNL A   1       5.556  -2.665   1.785  0.00  0.00    -0.214 F 
BRANCH  16  19
ATOM     19  C   UNL A   1       5.241  -0.691   3.230  0.00  0.00    +0.432 C 
ATOM     20  F   UNL A   1       6.615  -0.677   3.215  0.00  0.00    -0.187 F 
ATOM     21  F   UNL A   1       4.895  -0.774   4.554  0.00  0.00    -0.187 F 
BRANCH  19  23
ATOM     22  O   UNL A   1       3.645   1.118   3.136  0.00  0.00    -0.266 OA
ATOM     23  C   UNL A   1       4.688   0.626   2.605  0.00  0.00    +0.434 C 
ATOM     24  O   UNL A   1       5.307   1.069   1.584  0.00  0.00    -0.266 OA
ENDBRANCH  19  23
ENDBRANCH  16  19
ENDBRANCH  15  16
ENDBRANCH   1  15
TORSDOF 8
