REMARK  Name = *****
REMARK  11 active torsions:
REMARK  status: ('A' for Active; 'I' for Inactive)
REMARK    1  A    between atoms: C_2  and  C_3
REMARK    2  A    between atoms: C_2  and  C_19
REMARK    3  A    between atoms: C_3  and  C_4
REMARK    4  A    between atoms: C_4  and  C_5
REMARK    5  A    between atoms: C_5  and  C_6
REMARK    6  A    between atoms: C_6  and  C_7
REMARK    7  A    between atoms: C_19  and  C_20
REMARK    8  A    between atoms: C_20  and  S_21
REMARK    9  A    between atoms: S_21  and  O_22
REMARK   10  A    between atoms: S_21  and  O_23
REMARK   11  A    between atoms: S_21  and  O_24
REMARK                            x       y       z     vdW  Elec       q    Type
REMARK                         _______ _______ _______ _____ _____    ______ ____
ROOT
ATOM      1  F   UNL A   1       2.853   1.134  -0.594  0.00  0.00    -0.199 F 
ATOM      2  C   UNL A   1       2.187   0.057  -0.101  0.00  0.00    +0.406 C 
ATOM      3  F   UNL A   1       2.659  -0.975  -0.889  0.00  0.00    -0.199 F 
ENDROOT
BRANCH   2   4
ATOM      4  C   UNL A   1       2.644  -0.245   1.324  0.00  0.00    +0.402 C 
ATOM      5  F   UNL A   1       4.018  -0.301   1.331  0.00  0.00    -0.200 F 
ATOM      6  F   UNL A   1       2.337   0.797   2.145  0.00  0.00    -0.200 F 
BRANCH   4   7
ATOM      7  C   UNL A   1       2.139  -1.521   1.997  0.00  0.00    +0.403 C 
ATOM      8  F   UNL A   1       2.651  -1.535   3.271  0.00  0.00    -0.200 F 
ATOM      9  F   UNL A   1       0.790  -1.458   2.168  0.00  0.00    -0.200 F 
BRANCH   7  10
ATOM     10  C   UNL A   1       2.512  -2.835   1.328  0.00  0.00    +0.408 C 
ATOM     11  F   UNL A   1       1.948  -2.929   0.096  0.00  0.00    -0.199 F 
ATOM     12  F   UNL A   1       3.857  -2.900   1.141  0.00  0.00    -0.199 F 
BRANCH  10  13
ATOM     13  C   UNL A   1       2.055  -4.009   2.171  0.00  0.00    +0.420 C 
ATOM     14  F   UNL A   1       2.608  -3.952   3.418  0.00  0.00    -0.190 F 
ATOM     15  F   UNL A   1       0.706  -3.954   2.376  0.00  0.00    -0.190 F 
BRANCH  13  16
ATOM     16  C   UNL A   1       2.421  -5.334   1.513  0.00  0.00    +0.440 C 
ATOM     17  F   UNL A   1       3.127  -5.217   0.368  0.00  0.00    -0.165 F 
ATOM     18  F   UNL A   1       3.163  -6.111   2.348  0.00  0.00    -0.165 F 
ATOM     19  F   UNL A   1       1.315  -6.067   1.217  0.00  0.00    -0.165 F 
ENDBRANCH  13  16
ENDBRANCH  10  13
ENDBRANCH   7  10
ENDBRANCH   4   7
ENDBRANCH   2   4
BRANCH   2  20
ATOM     20  C   UNL A   1       0.689   0.168  -0.346  0.00  0.00    +0.417 C 
ATOM     21  F   UNL A   1       0.465   0.283  -1.691  0.00  0.00    -0.194 F 
ATOM     22  F   UNL A   1       0.173  -1.088  -0.059  0.00  0.00    -0.194 F 
BRANCH  20  23
ATOM     23  C   UNL A   1      -0.130   1.173   0.439  0.00  0.00    +0.446 C 
ATOM     24  F   UNL A   1      -1.459   0.968   0.124  0.00  0.00    -0.172 F 
ATOM     25  F   UNL A   1      -0.051   0.851   1.774  0.00  0.00    -0.172 F 
BRANCH  23  26
ATOM     26  S   UNL A   1       0.383   2.878   0.112  0.00  0.00    +0.092 S 
BRANCH  26  27
ATOM     27  O   UNL A   1       1.721   2.963   0.692  0.00  0.00    -0.077 OA
ENDBRANCH  26  27
BRANCH  26  29
ATOM     29  O   UNL A   1       0.358   3.010  -1.344  0.00  0.00    -0.077 OA
ENDBRANCH  26  29
BRANCH  26  31
ATOM     31  O   UNL A   1      -0.607   3.706   0.801  0.00  0.00    -0.077 OA
ENDBRANCH  26  31
ENDBRANCH  23  26
ENDBRANCH  20  23
ENDBRANCH   2  20
TORSDOF 11
