REMARK  Name = *****
REMARK  10 active torsions:
REMARK  status: ('A' for Active; 'I' for Inactive)
REMARK    1  A    between atoms: C_2  and  C_4
REMARK    2  A    between atoms: C_4  and  C_5
REMARK    3  A    between atoms: C_5  and  C_6
REMARK    4  A    between atoms: C_6  and  C_7
REMARK    5  A    between atoms: C_7  and  C_8
REMARK    6  A    between atoms: C_8  and  C_9
REMARK    7  A    between atoms: C_9  and  C_10
REMARK    8  A    between atoms: C_10  and  C_11
REMARK    9  A    between atoms: C_11  and  C_12
REMARK   10  A    between atoms: C_12  and  C_13
REMARK                            x       y       z     vdW  Elec       q    Type
REMARK                         _______ _______ _______ _____ _____    ______ ____
ROOT
ATOM      1  C   UNL A   1       1.630   4.108  -1.947  0.00  0.00    +0.401 C 
ATOM      2  F   UNL A   1       1.371   5.232  -1.201  0.00  0.00    -0.201 F 
ATOM      3  F   UNL A   1       2.982   3.963  -1.859  0.00  0.00    -0.201 F 
ENDROOT
BRANCH   1   4
ATOM      4  C   UNL A   1       0.936   2.921  -1.283  0.00  0.00    +0.401 C 
ATOM      5  F   UNL A   1      -0.409   3.199  -1.277  0.00  0.00    -0.201 F 
ATOM      6  F   UNL A   1       1.279   2.918   0.030  0.00  0.00    -0.201 F 
BRANCH   4   7
ATOM      7  C   UNL A   1       1.144   1.548  -1.917  0.00  0.00    +0.403 C 
ATOM      8  F   UNL A   1       0.622   1.622  -3.191  0.00  0.00    -0.200 F 
ATOM      9  F   UNL A   1       0.338   0.632  -1.312  0.00  0.00    -0.200 F 
BRANCH   7  10
ATOM     10  C   UNL A   1       2.575   1.031  -2.033  0.00  0.00    +0.412 C 
ATOM     11  F   UNL A   1       3.255   1.902  -2.855  0.00  0.00    -0.198 F 
ATOM     12  F   UNL A   1       2.561  -0.135  -2.752  0.00  0.00    -0.198 F 
BRANCH  10  13
ATOM     13  C   UNL A   1       3.367   0.867  -0.764  0.00  0.00    +0.442 C 
ATOM     14  F   UNL A   1       3.504   2.067  -0.125  0.00  0.00    -0.184 F 
ATOM     15  F   UNL A   1       4.641   0.449  -1.033  0.00  0.00    -0.184 F 
BRANCH  13  17
ATOM     16  O   UNL A   1       1.771   0.347   0.905  0.00  0.00    -0.266 OA
ATOM     17  C   UNL A   1       2.637  -0.142   0.131  0.00  0.00    +0.437 C 
ATOM     18  O   UNL A   1       2.940  -1.370  -0.030  0.00  0.00    -0.266 OA
ENDBRANCH  13  17
ENDBRANCH  10  13
ENDBRANCH   7  10
ENDBRANCH   4   7
ENDBRANCH   1   4
BRANCH   1  19
ATOM     19  C   UNL A   1       1.260   4.435  -3.392  0.00  0.00    +0.401 C 
ATOM     20  F   UNL A   1       2.049   5.472  -3.822  0.00  0.00    -0.201 F 
ATOM     21  F   UNL A   1       1.622   3.403  -4.206  0.00  0.00    -0.201 F 
BRANCH  19  22
ATOM     22  C   UNL A   1      -0.194   4.808  -3.675  0.00  0.00    +0.403 C 
ATOM     23  F   UNL A   1      -0.312   5.075  -5.017  0.00  0.00    -0.200 F 
ATOM     24  F   UNL A   1      -0.980   3.704  -3.485  0.00  0.00    -0.200 F 
BRANCH  22  25
ATOM     25  C   UNL A   1      -0.805   5.978  -2.910  0.00  0.00    +0.408 C 
ATOM     26  F   UNL A   1      -2.108   6.121  -3.315  0.00  0.00    -0.199 F 
ATOM     27  F   UNL A   1      -0.875   5.678  -1.587  0.00  0.00    -0.199 F 
BRANCH  25  28
ATOM     28  C   UNL A   1      -0.092   7.297  -3.106  0.00  0.00    +0.420 C 
ATOM     29  F   UNL A   1       1.181   7.208  -2.635  0.00  0.00    -0.190 F 
ATOM     30  F   UNL A   1       0.031   7.585  -4.432  0.00  0.00    -0.190 F 
BRANCH  28  31
ATOM     31  C   UNL A   1      -0.824   8.420  -2.382  0.00  0.00    +0.440 C 
ATOM     32  F   UNL A   1      -1.775   8.003  -1.519  0.00  0.00    -0.165 F 
ATOM     33  F   UNL A   1       0.042   9.185  -1.667  0.00  0.00    -0.165 F 
ATOM     34  F   UNL A   1      -1.430   9.263  -3.257  0.00  0.00    -0.165 F 
ENDBRANCH  28  31
ENDBRANCH  25  28
ENDBRANCH  22  25
ENDBRANCH  19  22
ENDBRANCH   1  19
TORSDOF 10
