REMARK  Name = *****
REMARK  9 active torsions:
REMARK  status: ('A' for Active; 'I' for Inactive)
REMARK    1  A    between atoms: O_1  and  S_2
REMARK    2  A    between atoms: S_2  and  C_3
REMARK    3  A    between atoms: S_2  and  O_22
REMARK    4  A    between atoms: S_2  and  O_23
REMARK    5  A    between atoms: C_3  and  C_4
REMARK    6  A    between atoms: C_4  and  C_5
REMARK    7  A    between atoms: C_5  and  C_6
REMARK    8  A    between atoms: C_6  and  C_7
REMARK    9  A    between atoms: C_7  and  C_8
REMARK                            x       y       z     vdW  Elec       q    Type
REMARK                         _______ _______ _______ _____ _____    ______ ____
ROOT
ATOM      1  C   UNL A   1       2.667   2.441   0.777  0.00  0.00    +0.417 C 
ATOM      2  F   UNL A   1       2.918   3.768   0.469  0.00  0.00    -0.194 F 
ATOM      3  F   UNL A   1       1.306   2.426   0.917  0.00  0.00    -0.194 F 
ENDROOT
BRANCH   1   4
ATOM      4  C   UNL A   1       3.115   1.613  -0.412  0.00  0.00    +0.446 C 
ATOM      5  F   UNL A   1       4.459   1.836  -0.613  0.00  0.00    -0.172 F 
ATOM      6  F   UNL A   1       2.517   2.129  -1.542  0.00  0.00    -0.172 F 
BRANCH   4   7
ATOM      7  S   UNL A   1       2.731  -0.144  -0.191  0.00  0.00    +0.092 S 
BRANCH   7   8
ATOM      8  O   UNL A   1       3.595  -0.551   0.908  0.00  0.00    -0.077 OA
ENDBRANCH   7   8
BRANCH   7  10
ATOM     10  O   UNL A   1       3.085  -0.766  -1.467  0.00  0.00    -0.077 OA
ENDBRANCH   7  10
BRANCH   7  12
ATOM     12  O   UNL A   1       1.304  -0.188   0.121  0.00  0.00    -0.077 OA
ENDBRANCH   7  12
ENDBRANCH   4   7
ENDBRANCH   1   4
BRANCH   1  14
ATOM     14  C   UNL A   1       3.311   2.187   2.135  0.00  0.00    +0.407 C 
ATOM     15  F   UNL A   1       2.830   3.160   2.995  0.00  0.00    -0.199 F 
ATOM     16  F   UNL A   1       2.841   1.038   2.690  0.00  0.00    -0.199 F 
BRANCH  14  17
ATOM     17  C   UNL A   1       4.837   2.230   2.236  0.00  0.00    +0.409 C 
ATOM     18  F   UNL A   1       5.183   1.940   3.534  0.00  0.00    -0.198 F 
ATOM     19  F   UNL A   1       5.423   1.272   1.480  0.00  0.00    -0.198 F 
BRANCH  17  20
ATOM     20  C   UNL A   1       5.442   3.572   1.893  0.00  0.00    +0.420 C 
ATOM     21  F   UNL A   1       5.184   3.908   0.598  0.00  0.00    -0.190 F 
ATOM     22  F   UNL A   1       4.871   4.562   2.639  0.00  0.00    -0.190 F 
BRANCH  20  23
ATOM     23  C   UNL A   1       6.952   3.556   2.118  0.00  0.00    +0.440 C 
ATOM     24  F   UNL A   1       7.462   2.374   2.524  0.00  0.00    -0.165 F 
ATOM     25  F   UNL A   1       7.623   3.903   0.987  0.00  0.00    -0.165 F 
ATOM     26  F   UNL A   1       7.319   4.476   3.052  0.00  0.00    -0.165 F 
ENDBRANCH  20  23
ENDBRANCH  17  20
ENDBRANCH  14  17
ENDBRANCH   1  14
TORSDOF 9
