REMARK  Name = *****
REMARK  8 active torsions:
REMARK  status: ('A' for Active; 'I' for Inactive)
REMARK    1  A    between atoms: C_2  and  C_4
REMARK    2  A    between atoms: C_4  and  C_5
REMARK    3  A    between atoms: C_5  and  C_6
REMARK    4  A    between atoms: C_6  and  C_7
REMARK    5  A    between atoms: C_7  and  C_8
REMARK    6  A    between atoms: C_8  and  C_9
REMARK    7  A    between atoms: C_9  and  C_10
REMARK    8  A    between atoms: C_10  and  C_11
REMARK                            x       y       z     vdW  Elec       q    Type
REMARK                         _______ _______ _______ _____ _____    ______ ____
ROOT
ATOM      1  C   UNL A   1       0.878  -2.888   1.387  0.00  0.00    +0.402 C 
ATOM      2  F   UNL A   1      -0.479  -3.087   1.456  0.00  0.00    -0.200 F 
ATOM      3  F   UNL A   1       1.150  -2.945   0.057  0.00  0.00    -0.200 F 
ENDROOT
BRANCH   1   4
ATOM      4  C   UNL A   1       1.196  -1.512   1.964  0.00  0.00    +0.403 C 
ATOM      5  F   UNL A   1       0.786  -1.538   3.283  0.00  0.00    -0.200 F 
ATOM      6  F   UNL A   1       0.385  -0.572   1.410  0.00  0.00    -0.200 F 
BRANCH   4   7
ATOM      7  C   UNL A   1       2.653  -1.052   1.954  0.00  0.00    +0.412 C 
ATOM      8  F   UNL A   1       3.361  -1.939   2.736  0.00  0.00    -0.198 F 
ATOM      9  F   UNL A   1       2.740   0.125   2.653  0.00  0.00    -0.198 F 
BRANCH   7  10
ATOM     10  C   UNL A   1       3.353  -0.936   0.627  0.00  0.00    +0.442 C 
ATOM     11  F   UNL A   1       3.408  -2.151   0.008  0.00  0.00    -0.184 F 
ATOM     12  F   UNL A   1       4.657  -0.556   0.799  0.00  0.00    -0.184 F 
BRANCH  10  14
ATOM     13  O   UNL A   1       1.641  -0.390  -0.915  0.00  0.00    -0.266 OA
ATOM     14  C   UNL A   1       2.601   0.085  -0.226  0.00  0.00    +0.437 C 
ATOM     15  O   UNL A   1       2.957   1.290  -0.137  0.00  0.00    -0.266 OA
ENDBRANCH  10  14
ENDBRANCH   7  10
ENDBRANCH   4   7
ENDBRANCH   1   4
BRANCH   1  16
ATOM     16  C   UNL A   1       1.543  -4.089   2.059  0.00  0.00    +0.403 C 
ATOM     17  F   UNL A   1       1.119  -5.229   1.413  0.00  0.00    -0.200 F 
ATOM     18  F   UNL A   1       2.889  -4.053   1.821  0.00  0.00    -0.200 F 
BRANCH  16  19
ATOM     19  C   UNL A   1       1.326  -4.309   3.553  0.00  0.00    +0.408 C 
ATOM     20  F   UNL A   1       2.016  -5.440   3.916  0.00  0.00    -0.199 F 
ATOM     21  F   UNL A   1       1.901  -3.306   4.267  0.00  0.00    -0.199 F 
BRANCH  19  22
ATOM     22  C   UNL A   1      -0.115  -4.483   3.970  0.00  0.00    +0.420 C 
ATOM     23  F   UNL A   1      -0.826  -3.352   3.707  0.00  0.00    -0.190 F 
ATOM     24  F   UNL A   1      -0.714  -5.466   3.239  0.00  0.00    -0.190 F 
BRANCH  22  25
ATOM     25  C   UNL A   1      -0.206  -4.802   5.458  0.00  0.00    +0.440 C 
ATOM     26  F   UNL A   1       0.960  -4.684   6.132  0.00  0.00    -0.165 F 
ATOM     27  F   UNL A   1      -1.098  -3.991   6.085  0.00  0.00    -0.165 F 
ATOM     28  F   UNL A   1      -0.649  -6.070   5.669  0.00  0.00    -0.165 F 
ENDBRANCH  22  25
ENDBRANCH  19  22
ENDBRANCH  16  19
ENDBRANCH   1  16
TORSDOF 8
